* File name: example
* Software version: DSCH 2.7f
* Created 1/2/2004 11:32:05 AM
*
* Voltage and current sources
*
*
* Passive devices
*
*
* Active devices
*
*
*
* Mos models in 0.12µm
* Model 3 n-channel MOS
.MODEL  TN  NMOS
+ LEVEL=3            TPG=+1
+ GAMMA=0.2          THETA=0.5          KAPPA=0.1        ETA=0.002
+ DELTA=0.0          UO=620             VMAX=100E3       VTO=0.35
+ TOX=3e-9           XJ=0.1U            LD=0.00U         NSUB=1E+18
+ NSS=0.2            NFS=7E11
+ CJ=4.091E-4        MJ=0.307           PB=1.0
+ CJSW=3.078E-10     MJSW=1.0E-2
+ CGSO=3.93E-10      CGDO=3.93E-10
* Model 3 p-channel MOS
.MODEL  TP  PMOS
+ LEVEL=3            TPG=-1
+ GAMMA=0.2          THETA=0.5          KAPPA=0.01         ETA=0.001
+ DELTA=0.0          UO=250             VMAX=500E3         VTO=-0.35
+ TOX=3E-9          XJ=0.1U             LD=0.0U             NSUB=1E+18
+ NSS=0.0            NFS=7E11
+ CJ=6.852E-4        MJ=0.429           PB=1.0
+ CJSW=5.217E-10     MJSW=0.351
+ CGSO=7.29E-10      CGDO=7.29E-10
.TRAN 0.1ns 250ns
*--WinSpice3--
* Run simulation
*#run
*
* Dump time and volts in "example.txt"
*#set nobreak
*#print   > example.txt
* Show the result in a window
*#plot  
.OPTIONS DELMIN=0 RELTOL=1E-6
.END
